test/data/matpower/hawaii.m
% Case saved by PowerWorld Simulator, version 23, build date June 10, 2024
function mpc = hawaii
mpc.version = '2';
mpc.baseMVA =  100.00;

%% bus data 
mpc.bus = [
1	1	0.00	0.00	0.00	0.00	1	0.9935453	-1.119907	138.00	1	1.100	0.900	5.22	0.00	0	0
2	2	60.70	0.00	0.00	0.00	1	0.9912250	-3.927372	69.00	1	1.100	0.900	5.25	0.00	0	0
3	1	59.39	0.00	0.00	0.00	1	0.9845477	-4.731145	69.00	1	1.100	0.900	5.71	-0.03	0	0
4	1	22.47	0.00	0.00	0.00	1	0.9787999	-5.745870	69.00	1	1.100	0.900	5.42	-0.01	0	0
5	1	0.00	0.00	0.00	0.00	1	0.9889847	-2.069792	138.00	1	1.100	0.900	5.28	0.00	0	0
6	1	27.46	0.00	0.00	0.00	1	0.9812064	-5.528160	69.00	1	1.100	0.900	5.49	-0.00	0	0
7	1	37.01	0.00	0.00	0.00	1	0.9805826	-5.671337	69.00	1	1.100	0.900	5.48	-0.00	0	0
8	1	65.10	0.00	0.00	0.00	1	0.9786187	-5.702381	69.00	1	1.100	0.900	5.75	-0.03	0	0
9	1	0.00	0.00	0.00	0.00	1	0.9867678	-2.548359	138.00	1	1.100	0.900	5.31	-0.00	0	0
10	1	37.76	0.00	0.00	0.00	1	0.9809410	-5.651960	69.00	1	1.100	0.900	5.47	0.00	0	0
11	1	65.55	0.00	0.00	0.00	1	0.9749115	-6.522955	69.00	1	1.100	0.900	5.50	0.00	0	0
12	1	54.01	0.00	0.00	0.00	1	0.9773269	-6.198354	69.00	1	1.100	0.900	5.51	-0.00	0	0
13	1	59.24	0.00	0.00	0.00	1	0.9789530	-6.094816	69.00	1	1.100	0.900	5.49	-0.00	0	0
14	1	0.00	0.00	0.00	0.00	1	0.9837641	-3.136205	138.00	1	1.100	0.900	5.35	-0.00	0	0
15	1	60.90	0.00	0.00	0.00	1	0.9786311	-6.029763	69.00	1	1.100	0.900	5.51	0.01	0	0
16	1	23.83	0.00	0.00	32.00	1	0.9821866	-6.456032	69.00	1	1.100	0.900	5.56	-0.01	0	0
17	1	12.04	0.00	0.00	0.00	1	0.9754957	-6.981904	69.00	1	1.100	0.900	5.53	-0.01	0	0
18	1	36.32	0.00	0.00	0.00	1	0.9759604	-7.121150	69.00	1	1.100	0.900	5.55	-0.01	0	0
19	1	48.60	0.00	0.00	0.00	1	0.9913040	-3.514221	69.00	1	1.100	0.900	5.89	-0.04	0	0
20	1	64.95	0.00	0.00	0.00	1	0.9896603	-1.963951	69.00	1	1.100	0.900	7.07	-0.18	0	0
21	1	48.34	0.00	0.00	0.00	1	0.9799422	-5.268157	69.00	1	1.100	0.900	5.54	-0.01	0	0
22	1	0.00	0.00	0.00	0.00	1	0.9963974	-0.844548	138.00	1	1.100	0.900	5.19	0.00	0	0
23	3	86.75	0.00	0.00	0.00	1	1.0000000	-2.106015	69.00	1	1.100	0.900	5.10	0.00	0	0
24	1	46.58	0.00	0.00	0.00	1	0.9934020	-3.706851	69.00	1	1.100	0.900	4.59	-0.05	0	0
25	1	0.00	0.00	0.00	0.00	1	0.9966141	-0.528763	138.00	1	1.100	0.900	5.20	0.00	0	0
26	2	75.28	0.00	0.00	0.00	1	0.9951046	-3.596866	69.00	1	1.100	0.900	4.93	-0.02	0	0
27	2	3.95	0.00	0.00	0.00	1	1.0034164	1.362694	69.00	1	1.100	0.900	7.78	-0.10	0	0
28	2	8.82	0.00	0.00	0.00	1	1.0000000	0.234055	69.00	1	1.100	0.900	0.00	0.00	0	0
29	1	7.70	0.00	0.00	0.00	1	0.9953834	-0.097274	69.00	1	1.100	0.900	7.84	-0.12	0	0
30	1	49.03	0.00	0.00	0.00	1	0.9957983	-0.422344	69.00	1	1.100	0.900	8.14	-0.10	0	0
31	1	9.62	0.00	0.00	0.00	1	0.9952150	-2.101776	69.00	1	1.100	0.900	2.58	0.08	0	0
32	1	6.67	0.00	0.00	0.00	1	0.9912167	-1.321157	69.00	1	1.100	0.900	7.37	-0.16	0	0
33	2	58.22	0.00	0.00	0.00	1	0.9956520	-3.050368	69.00	1	1.100	0.900	4.14	-0.01	0	0
34	2	0.00	0.00	0.00	0.00	1	1.0000000	-2.084231	69.00	1	1.100	0.900	4.62	0.00	0	0
35	2	0.00	0.00	0.00	0.00	1	1.0000000	0.376390	138.00	1	1.100	0.900	5.20	0.00	0	0
36	2	0.00	0.00	0.00	0.00	1	0.9965724	-3.565242	69.00	1	1.100	0.900	4.59	-0.05	0	0
37	2	0.00	0.00	0.00	0.00	1	1.0000000	0.251430	138.00	1	1.100	0.900	5.20	0.00	0	0
];

%% generator data 
mpc.gen = [
2	2.50	0.80	0.80	-0.50	1.0000	2.80	1	2.50	1.00	0.00	0.00	0.00	0.00	0.00	0.00	0	0	0	0	0.0000	0	0	0	0
2	2.50	0.80	0.80	-0.50	1.0000	2.80	1	2.50	1.00	0.00	0.00	0.00	0.00	0.00	0.00	0	0	0	0	0.0000	0	0	0	0
2	2.50	0.80	0.80	-0.50	1.0000	2.80	1	2.50	1.00	0.00	0.00	0.00	0.00	0.00	0.00	0	0	0	0	0.0000	0	0	0	0
2	2.50	0.80	0.80	-0.50	1.0000	2.80	1	2.50	1.00	0.00	0.00	0.00	0.00	0.00	0.00	0	0	0	0	0.0000	0	0	0	0
23	69.27	0.04	23.30	-14.00	1.0000	85.60	1	77.80	20.00	0.00	0.00	0.00	0.00	0.00	0.00	0	0	0	0	0.0000	0	0	0	0
23	39.13	0.04	13.80	-8.30	1.0000	50.50	1	45.90	0.00	0.00	0.00	0.00	0.00	0.00	0.00	0	0	0	0	0.0000	0	0	0	0
23	69.27	0.04	23.30	-14.00	1.0000	85.60	1	77.80	20.00	0.00	0.00	0.00	0.00	0.00	0.00	0	0	0	0	0.0000	0	0	0	0
23	47.64	0.04	15.60	-9.40	1.0000	57.10	1	51.90	23.00	0.00	0.00	0.00	0.00	0.00	0.00	0	0	0	0	0.0000	0	0	0	0
23	47.11	0.04	15.50	-9.30	1.0000	57.00	1	51.80	20.00	0.00	0.00	0.00	0.00	0.00	0.00	0	0	0	0	0.0000	0	0	0	0
23	44.53	0.04	15.40	-9.20	1.0000	56.30	1	51.20	6.00	0.00	0.00	0.00	0.00	0.00	0.00	0	0	0	0	0.0000	0	0	0	0
23	44.53	0.04	15.40	-9.20	1.0000	56.30	1	51.20	6.00	0.00	0.00	0.00	0.00	0.00	0.00	0	0	0	0	0.0000	0	0	0	0
23	43.61	0.04	14.30	-8.60	1.0000	52.50	1	47.70	20.00	0.00	0.00	0.00	0.00	0.00	0.00	0	0	0	0	0.0000	0	0	0	0
23	43.19	0.04	14.20	-8.50	1.0000	51.90	1	47.20	20.00	0.00	0.00	0.00	0.00	0.00	0.00	0	0	0	0	0.0000	0	0	0	0
23	12.53	0.04	4.40	-2.60	1.0000	16.20	1	14.70	0.00	0.00	0.00	0.00	0.00	0.00	0.00	0	0	0	0	0.0000	0	0	0	0
26	20.00	6.00	6.00	-3.60	1.0000	22.00	1	20.00	0.00	0.00	0.00	0.00	0.00	0.00	0.00	0	0	0	0	0.0000	0	0	0	0
26	10.20	3.10	3.10	-1.90	1.0000	11.20	1	10.20	0.00	0.00	0.00	0.00	0.00	0.00	0.00	0	0	0	0	0.0000	0	0	0	0
27	30.00	-5.40	9.00	-5.40	1.0000	33.00	1	30.00	0.00	0.00	0.00	0.00	0.00	0.00	0.00	0	0	0	0	0.0000	0	0	0	0
27	27.60	-5.00	8.30	-5.00	1.0000	30.40	1	27.60	1.00	0.00	0.00	0.00	0.00	0.00	0.00	0	0	0	0	0.0000	0	0	0	0
28	46.30	-5.49	14.70	-8.80	1.0000	53.90	1	49.00	0.00	0.00	0.00	0.00	0.00	0.00	0.00	0	0	0	0	0.0000	0	0	0	0
28	69.00	-5.49	20.70	-12.40	1.0000	75.90	1	69.00	0.00	0.00	0.00	0.00	0.00	0.00	0.00	0	0	0	0	0.0000	0	0	0	0
33	27.60	8.30	8.30	-5.00	1.0000	30.40	1	27.60	0.00	0.00	0.00	0.00	0.00	0.00	0.00	0	0	0	0	0.0000	0	0	0	0
34	7.22	-0.98	2.50	-1.50	1.0000	9.20	1	8.40	2.50	0.00	0.00	0.00	0.00	0.00	0.00	0	0	0	0	0.0000	0	0	0	0
34	6.04	-0.98	2.50	-1.50	1.0000	9.20	1	8.40	2.50	0.00	0.00	0.00	0.00	0.00	0.00	0	0	0	0	0.0000	0	0	0	0
34	6.04	-0.98	2.50	-1.50	1.0000	9.20	1	8.40	2.50	0.00	0.00	0.00	0.00	0.00	0.00	0	0	0	0	0.0000	0	0	0	0
34	6.04	-0.98	2.50	-1.50	1.0000	9.20	1	8.40	2.50	0.00	0.00	0.00	0.00	0.00	0.00	0	0	0	0	0.0000	0	0	0	0
34	6.01	-0.98	2.50	-1.50	1.0000	9.20	1	8.40	2.50	0.00	0.00	0.00	0.00	0.00	0.00	0	0	0	0	0.0000	0	0	0	0
34	7.22	-0.98	2.50	-1.50	1.0000	9.20	1	8.40	2.50	0.00	0.00	0.00	0.00	0.00	0.00	0	0	0	0	0.0000	0	0	0	0
35	58.00	0.05	17.40	-10.40	1.0000	63.80	1	58.00	5.00	0.00	0.00	0.00	0.00	0.00	0.00	0	0	0	0	0.0000	0	0	0	0
35	28.00	0.05	8.40	-5.00	1.0000	30.80	1	28.00	5.00	0.00	0.00	0.00	0.00	0.00	0.00	0	0	0	0	0.0000	0	0	0	0
35	0.00	0.00	54.00	-32.40	1.0000	198.00	0	180.00	63.00	0.00	0.00	0.00	0.00	0.00	0.00	0	0	0	0	0.0000	0	0	0	0
35	20.00	0.05	6.00	-3.60	1.0000	22.00	1	20.00	5.00	0.00	0.00	0.00	0.00	0.00	0.00	0	0	0	0	0.0000	0	0	0	0
35	67.00	0.05	25.50	-15.30	1.0000	93.50	1	85.00	40.00	0.00	0.00	0.00	0.00	0.00	0.00	0	0	0	0	0.0000	0	0	0	0
35	0.00	0.00	25.50	-15.30	1.0000	93.50	0	85.00	40.00	0.00	0.00	0.00	0.00	0.00	0.00	0	0	0	0	0.0000	0	0	0	0
35	50.00	0.05	15.00	-9.00	1.0000	55.00	1	50.00	10.00	0.00	0.00	0.00	0.00	0.00	0.00	0	0	0	0	0.0000	0	0	0	0
35	56.20	0.05	33.90	-20.30	1.0000	124.30	1	113.00	42.00	0.00	0.00	0.00	0.00	0.00	0.00	0	0	0	0	0.0000	0	0	0	0
36	2.00	1.00	1.00	-0.60	1.0000	3.50	1	3.20	2.00	0.00	0.00	0.00	0.00	0.00	0.00	0	0	0	0	0.0000	0	0	0	0
36	2.10	1.00	1.00	-0.60	1.0000	3.50	1	3.20	2.00	0.00	0.00	0.00	0.00	0.00	0.00	0	0	0	0	0.0000	0	0	0	0
36	2.00	1.00	1.00	-0.60	1.0000	3.50	1	3.20	2.00	0.00	0.00	0.00	0.00	0.00	0.00	0	0	0	0	0.0000	0	0	0	0
36	2.48	1.00	1.00	-0.60	1.0000	3.50	1	3.20	2.00	0.00	0.00	0.00	0.00	0.00	0.00	0	0	0	0	0.0000	0	0	0	0
37	0.00	0.00	38.60	-23.20	1.0000	141.60	0	128.70	45.00	0.00	0.00	0.00	0.00	0.00	0.00	0	0	0	0	0.0000	0	0	0	0
37	0.00	0.00	38.40	-23.00	1.0000	140.90	0	128.10	55.00	0.00	0.00	0.00	0.00	0.00	0.00	0	0	0	0	0.0000	0	0	0	0
37	58.32	5.63	26.20	-15.70	1.0000	95.90	1	87.20	20.00	0.00	0.00	0.00	0.00	0.00	0.00	0	0	0	0	0.0000	0	0	0	0
37	0.00	0.00	24.60	-14.80	1.0000	90.30	0	82.10	20.00	0.00	0.00	0.00	0.00	0.00	0.00	0	0	0	0	0.0000	0	0	0	0
37	68.48	5.63	23.40	-14.00	1.0000	85.90	1	78.10	30.00	0.00	0.00	0.00	0.00	0.00	0.00	0	0	0	0	0.0000	0	0	0	0
37	0.00	0.00	23.40	-14.00	1.0000	85.70	0	77.90	20.00	0.00	0.00	0.00	0.00	0.00	0.00	0	0	0	0	0.0000	0	0	0	0
];

%% generator cost data
mpc.gencost = [
2	0	0	4	0.0000	0.003	4.570	0.00
2	0	0	4	0.0000	0.002	4.570	0.00
2	0	0	4	0.0000	0.002	4.570	0.00
2	0	0	4	0.0000	0.002	4.570	0.00
2	0	0	4	0.0000	0.004	4.680	0.00
2	0	0	4	0.0000	0.000	0.000	0.00
2	0	0	4	0.0000	0.005	4.680	0.00
2	0	0	4	0.0000	0.004	4.640	0.00
2	0	0	4	0.0000	0.004	4.640	0.00
2	0	0	4	0.0000	0.003	4.640	0.00
2	0	0	4	0.0000	0.003	4.640	0.00
2	0	0	4	0.0000	0.003	4.640	0.00
2	0	0	4	0.0000	0.005	4.630	0.00
2	0	0	4	0.0000	0.000	0.000	0.00
2	0	0	4	0.0000	0.000	0.000	0.00
2	0	0	4	0.0000	0.000	0.000	0.00
2	0	0	4	0.0000	0.000	0.000	0.00
2	0	0	4	0.0000	0.000	0.000	0.00
2	0	0	4	0.0000	0.000	0.000	0.00
2	0	0	4	0.0000	0.000	0.000	0.00
2	0	0	4	0.0000	0.000	0.000	0.00
2	0	0	4	0.0000	0.003	4.580	0.00
2	0	0	4	0.0000	0.003	4.580	0.00
2	0	0	4	0.0000	0.004	4.580	0.00
2	0	0	4	0.0000	0.003	4.580	0.00
2	0	0	4	0.0000	0.004	4.580	0.00
2	0	0	4	0.0000	0.003	4.580	0.00
2	0	0	4	0.0000	0.004	4.650	0.00
2	0	0	4	0.0000	0.004	4.610	0.00
2	0	0	4	0.0000	0.007	4.810	0.00
2	0	0	4	0.0000	0.003	4.600	0.00
2	0	0	4	0.0000	0.004	4.690	0.00
2	0	0	4	0.0000	0.005	4.690	0.00
2	0	0	4	0.0000	0.004	4.640	0.00
2	0	0	4	0.0000	0.004	4.720	0.00
2	0	0	4	0.0000	0.003	4.580	0.00
2	0	0	4	0.0000	0.002	4.580	0.00
2	0	0	4	0.0000	0.003	4.580	0.00
2	0	0	4	0.0000	0.002	4.580	0.00
2	0	0	4	0.0000	0.006	4.740	0.00
2	0	0	4	0.0000	0.006	4.740	0.00
2	0	0	4	0.0000	0.005	4.690	0.00
2	0	0	4	0.0000	0.005	4.680	0.00
2	0	0	4	0.0000	0.004	4.680	0.00
2	0	0	4	0.0000	0.005	4.680	0.00
];

%% branch data
mpc.branch = [
1	2	0.004840	0.123766	0.00000	123.20	123.20	123.20	1.00000	0.000	1	0.00	0.00	39.02	1.29	-38.95	0.62	0	0	0	0
1	2	0.004840	0.123766	0.00000	123.20	123.20	123.20	1.00000	0.000	1	0.00	0.00	39.02	1.29	-38.95	0.62	0	0	0	0
1	2	0.004840	0.123766	0.00000	123.20	123.20	123.20	1.00000	0.000	1	0.00	0.00	39.02	1.29	-38.95	0.62	0	0	0	0
1	5	0.003400	0.020913	0.00846	232.80	232.80	232.80	0.00000	0.000	1	0.00	0.00	79.42	8.98	-79.20	-8.46	0	0	0	0
1	5	0.003400	0.020913	0.00846	232.80	232.80	232.80	0.00000	0.000	1	0.00	0.00	79.42	8.98	-79.20	-8.46	0	0	0	0
1	22	0.003740	0.024173	0.00605	177.80	177.80	177.80	0.00000	0.000	1	0.00	0.00	-20.99	-8.73	21.01	8.25	0	0	0	0
1	25	0.002890	0.015798	0.00771	217.00	217.00	217.00	0.00000	0.000	1	0.00	0.00	-65.93	-7.29	66.06	7.23	0	0	0	0
1	25	0.002890	0.015798	0.00771	217.00	217.00	217.00	0.00000	0.000	1	0.00	0.00	-65.93	-7.29	66.06	7.23	0	0	0	0
1	35	0.010800	0.041922	0.01284	281.60	281.60	281.60	0.00000	0.000	1	0.00	0.00	-61.53	0.73	61.95	-0.40	0	0	0	0
1	35	0.010800	0.041922	0.01284	281.60	281.60	281.60	0.00000	0.000	1	0.00	0.00	-61.53	0.73	61.95	-0.40	0	0	0	0
2	4	0.042960	0.079357	0.00257	66.80	66.80	66.80	0.00000	0.000	1	0.00	0.00	36.76	-3.89	-36.16	4.74	0	0	0	0
2	6	0.026890	0.058600	0.00312	82.00	82.00	82.00	0.00000	0.000	1	0.00	0.00	44.97	-3.19	-44.41	4.10	0	0	0	0
2	6	0.026890	0.058600	0.00312	82.00	82.00	82.00	0.00000	0.000	1	0.00	0.00	44.97	-3.19	-44.41	4.10	0	0	0	0
2	7	0.027540	0.075691	0.00377	77.80	77.80	77.80	0.00000	0.000	1	0.00	0.00	39.18	0.09	-38.75	0.73	0	0	0	0
2	21	0.036460	0.077337	0.00173	94.80	94.80	94.80	0.00000	0.000	1	0.00	0.00	29.76	0.69	-29.43	-0.16	0	0	0	0
2	23	0.032620	0.081030	0.00180	101.30	101.30	101.30	0.00000	0.000	1	0.00	0.00	-36.96	4.68	37.42	-3.71	0	0	0	0
2	23	0.032620	0.081030	0.00180	101.30	101.30	101.30	0.00000	0.000	1	0.00	0.00	-36.96	4.68	37.42	-3.71	0	0	0	0
2	23	0.032620	0.081030	0.00180	101.30	101.30	101.30	0.00000	0.000	1	0.00	0.00	-36.96	4.68	37.42	-3.71	0	0	0	0
2	26	0.030490	0.066116	0.00186	61.70	61.70	61.70	0.00000	0.000	1	0.00	0.00	-9.30	-1.59	9.33	1.47	0	0	0	0
2	26	0.030490	0.066116	0.00186	61.70	61.70	61.70	0.00000	0.000	1	0.00	0.00	-9.30	-1.59	9.33	1.47	0	0	0	0
3	6	0.014780	0.036690	0.00104	85.00	85.00	85.00	0.00000	0.000	1	0.00	0.00	34.71	-4.81	-34.52	5.18	0	0	0	0
3	6	0.014780	0.036690	0.00104	85.00	85.00	85.00	0.00000	0.000	1	0.00	0.00	34.71	-4.81	-34.52	5.18	0	0	0	0
3	16	0.023830	0.063585	0.00504	82.80	82.80	82.80	0.00000	0.000	1	0.00	0.00	41.57	-11.48	-41.11	12.21	0	0	0	0
3	19	0.013820	0.031229	0.00541	91.60	91.60	91.60	0.00000	0.000	1	0.00	0.00	-63.13	7.08	63.70	-6.30	0	0	0	0
3	19	0.013820	0.031229	0.00541	91.60	91.60	91.60	0.00000	0.000	1	0.00	0.00	-63.13	7.08	63.70	-6.30	0	0	0	0
3	19	0.013820	0.031229	0.00541	91.60	91.60	91.60	0.00000	0.000	1	0.00	0.00	-63.13	7.08	63.70	-6.30	0	0	0	0
3	21	0.024230	0.047508	0.00152	49.00	49.00	49.00	0.00000	0.000	1	0.00	0.00	19.00	-0.13	-18.91	0.16	0	0	0	0
4	13	0.012140	0.038486	0.00170	53.20	53.20	53.20	0.00000	0.000	1	0.00	0.00	13.69	-4.74	-13.67	4.66	0	0	0	0
5	6	0.004790	0.139559	0.00000	198.00	198.00	198.00	1.00000	0.000	1	0.00	0.00	42.13	5.33	-42.04	-2.76	0	0	0	0
5	9	0.002290	0.012058	0.00409	170.70	170.70	170.70	0.00000	0.000	1	0.00	0.00	68.63	5.23	-68.52	-5.05	0	0	0	0
5	14	0.005740	0.038815	0.00687	162.50	162.50	162.50	0.00000	0.000	1	0.00	0.00	47.64	6.35	-47.50	-6.10	0	0	0	0
7	6	0.004000	0.010000	0.00096	40.20	40.20	40.20	0.00000	0.000	1	0.00	0.00	-22.83	3.00	22.85	-3.03	0	0	0	0
7	6	0.004000	0.010000	0.00096	40.20	40.20	40.20	0.00000	0.000	1	0.00	0.00	-22.83	3.00	22.85	-3.03	0	0	0	0
7	6	0.004000	0.010000	0.00096	40.20	40.20	40.20	0.00000	0.000	1	0.00	0.00	-22.83	3.00	22.85	-3.03	0	0	0	0
6	11	0.019800	0.042395	0.00097	89.00	89.00	89.00	0.00000	0.000	1	0.00	0.00	37.88	-2.83	-37.58	3.37	0	0	0	0
6	12	0.013640	0.033191	0.00066	58.80	58.80	58.80	0.00000	0.000	1	0.00	0.00	33.01	-1.93	-32.86	2.25	0	0	0	0
6	12	0.013640	0.033191	0.00066	58.80	58.80	58.80	0.00000	0.000	1	0.00	0.00	33.01	-1.93	-32.86	2.25	0	0	0	0
7	10	0.004000	0.010000	0.00096	50.00	50.00	50.00	0.00000	0.000	1	0.00	0.00	-4.02	-1.95	4.02	1.86	0	0	0	0
7	13	0.009410	0.027706	0.00096	40.20	40.20	40.20	0.00000	0.000	1	0.00	0.00	24.74	-2.59	-24.68	2.67	0	0	0	0
7	13	0.009410	0.027706	0.00096	40.20	40.20	40.20	0.00000	0.000	1	0.00	0.00	24.74	-2.59	-24.68	2.67	0	0	0	0
7	13	0.009410	0.027706	0.00096	40.20	40.20	40.20	0.00000	0.000	1	0.00	0.00	24.74	-2.59	-24.68	2.67	0	0	0	0
8	15	0.031390	0.075848	0.00197	84.90	84.90	84.90	0.00000	0.000	1	0.00	0.00	6.16	-2.64	-6.15	2.49	0	0	0	0
8	19	0.036990	0.102463	0.00246	90.00	90.00	90.00	0.00000	0.000	1	0.00	0.00	-35.63	1.32	36.12	-0.20	0	0	0	0
8	19	0.036990	0.102463	0.00246	90.00	90.00	90.00	0.00000	0.000	1	0.00	0.00	-35.63	1.32	36.12	-0.20	0	0	0	0
9	10	0.004680	0.125654	0.00000	56.20	56.20	56.20	1.00000	0.000	1	0.00	0.00	41.86	4.15	-41.78	-1.86	0	0	0	0
9	14	0.009330	0.037848	0.01017	169.30	169.30	169.30	0.00000	0.000	1	0.00	0.00	26.66	0.90	-26.59	-1.61	0	0	0	0
11	13	0.018440	0.047771	0.00224	45.30	45.30	45.30	0.00000	0.000	1	0.00	0.00	-15.74	-2.22	15.79	2.13	0	0	0	0
11	15	0.023280	0.069221	0.00152	48.60	48.60	48.60	0.00000	0.000	1	0.00	0.00	-12.23	-1.15	12.26	1.11	0	0	0	0
12	15	0.015110	0.041464	0.00414	77.00	77.00	77.00	0.00000	0.000	1	0.00	0.00	-6.98	-0.72	6.99	0.34	0	0	0	0
12	17	0.022780	0.065341	0.00282	49.90	49.90	49.90	0.00000	0.000	1	0.00	0.00	18.68	-3.77	-18.60	3.75	0	0	0	0
13	16	0.013090	0.032547	0.00110	52.00	52.00	52.00	0.00000	0.000	1	0.00	0.00	12.68	-14.82	-12.63	14.84	0	0	0	0
14	15	0.003250	0.131522	0.00000	85.90	85.90	85.90	1.00000	0.000	1	0.00	0.00	37.05	3.86	-37.00	-1.97	0	0	0	0
14	15	0.003250	0.131522	0.00000	85.90	85.90	85.90	1.00000	0.000	1	0.00	0.00	37.05	3.86	-37.00	-1.97	0	0	0	0
16	18	0.015530	0.039228	0.00191	51.70	51.70	51.70	0.00000	0.000	1	0.00	0.00	29.91	3.82	-29.77	-3.63	0	0	0	0
17	18	0.009840	0.029754	0.00145	47.90	47.90	47.90	0.00000	0.000	1	0.00	0.00	6.56	-3.75	-6.55	3.63	0	0	0	0
19	23	0.012580	0.030449	0.00133	100.30	100.30	100.30	0.00000	0.000	1	0.00	0.00	-77.99	4.83	78.77	-3.07	0	0	0	0
19	23	0.012580	0.030449	0.00133	100.30	100.30	100.30	0.00000	0.000	1	0.00	0.00	-77.99	4.83	78.77	-3.07	0	0	0	0
19	23	0.012580	0.030449	0.00133	100.30	100.30	100.30	0.00000	0.000	1	0.00	0.00	-77.99	4.83	78.77	-3.07	0	0	0	0
19	23	0.012580	0.030449	0.00133	100.30	100.30	100.30	0.00000	0.000	1	0.00	0.00	-77.99	4.83	78.77	-3.07	0	0	0	0
20	23	0.042660	0.074844	0.00179	85.80	85.80	85.80	0.00000	0.000	1	0.00	0.00	-3.41	-11.81	3.47	11.75	0	0	0	0
20	30	0.027800	0.068487	0.00300	64.40	64.40	64.40	0.00000	0.000	1	0.00	0.00	-36.15	6.18	36.53	-5.53	0	0	0	0
20	32	0.014940	0.039916	0.00335	52.00	52.00	52.00	0.00000	0.000	1	0.00	0.00	-25.40	5.64	25.50	-5.69	0	0	0	0
22	23	0.004450	0.116580	0.00000	149.60	149.60	149.60	1.00000	0.000	1	0.00	0.00	18.68	-3.58	-18.66	4.01	0	0	0	0
22	23	0.004450	0.116580	0.00000	149.60	149.60	149.60	1.00000	0.000	1	0.00	0.00	18.68	-3.58	-18.66	4.01	0	0	0	0
22	23	0.004450	0.116580	0.00000	149.60	149.60	149.60	1.00000	0.000	1	0.00	0.00	18.68	-3.58	-18.66	4.01	0	0	0	0
22	25	0.002980	0.017679	0.00775	277.00	277.00	277.00	0.00000	0.000	1	0.00	0.00	-30.29	3.58	30.32	-4.19	0	0	0	0
22	37	0.006820	0.040841	0.01104	292.90	292.90	292.90	0.00000	0.000	1	0.00	0.00	-46.75	-1.08	46.90	0.88	0	0	0	0
23	34	0.030140	0.091720	0.00193	74.40	74.40	74.40	0.00000	0.000	1	0.00	0.00	-0.37	0.03	0.37	-0.22	0	0	0	0
23	34	0.030140	0.091720	0.00193	74.40	74.40	74.40	0.00000	0.000	1	0.00	0.00	-0.37	0.03	0.37	-0.22	0	0	0	0
24	26	0.016450	0.053480	0.00135	65.60	65.60	65.60	0.00000	0.000	1	0.00	0.00	-4.13	-1.96	4.13	1.83	0	0	0	0
24	26	0.016450	0.053480	0.00135	65.60	65.60	65.60	0.00000	0.000	1	0.00	0.00	-4.13	-1.96	4.13	1.83	0	0	0	0
24	33	0.016900	0.033191	0.01102	69.50	69.50	69.50	0.00000	0.000	1	0.00	0.00	-29.76	8.07	29.92	-8.84	0	0	0	0
24	36	0.018930	0.037551	0.00194	48.70	48.70	48.70	0.00000	0.000	1	0.00	0.00	-8.56	-4.16	8.58	4.00	0	0	0	0
25	26	0.005320	0.147265	0.00000	131.70	131.70	131.70	1.00000	0.000	1	0.00	0.00	36.07	0.68	-36.00	1.25	0	0	0	0
25	26	0.005320	0.147265	0.00000	131.70	131.70	131.70	1.00000	0.000	1	0.00	0.00	36.07	0.68	-36.00	1.25	0	0	0	0
25	35	0.004130	0.024420	0.00685	201.40	201.40	201.40	0.00000	0.000	1	0.00	0.00	-64.87	-2.68	65.04	3.03	0	0	0	0
25	35	0.004130	0.024420	0.00685	201.40	201.40	201.40	0.00000	0.000	1	0.00	0.00	-64.87	-2.68	65.04	3.03	0	0	0	0
25	37	0.004890	0.026145	0.00780	224.00	224.00	224.00	0.00000	0.000	1	0.00	0.00	-52.42	-3.14	52.55	3.08	0	0	0	0
25	37	0.004890	0.026145	0.00780	224.00	224.00	224.00	0.00000	0.000	1	0.00	0.00	-52.42	-3.14	52.55	3.08	0	0	0	0
27	29	0.023880	0.042832	0.00128	67.50	67.50	67.50	0.00000	0.000	1	0.00	0.00	53.65	-10.40	-52.94	11.54	0	0	0	0
28	30	0.011200	0.031396	0.00433	70.00	70.00	70.00	0.00000	0.000	1	0.00	0.00	36.53	0.34	-36.39	-0.35	0	0	0	0
28	30	0.011200	0.031396	0.00433	70.00	70.00	70.00	0.00000	0.000	1	0.00	0.00	36.53	0.34	-36.39	-0.35	0	0	0	0
28	31	0.051070	0.104683	0.01435	58.30	58.30	58.30	0.00000	0.000	1	0.00	0.00	33.41	-11.66	-32.78	11.52	0	0	0	0
29	30	0.014790	0.036656	0.00188	49.30	49.30	49.30	0.00000	0.000	1	0.00	0.00	12.82	-6.35	-12.79	6.24	0	0	0	0
29	32	0.023150	0.061347	0.00173	60.00	60.00	60.00	0.00000	0.000	1	0.00	0.00	32.42	-5.19	-32.17	5.69	0	0	0	0
31	33	0.026960	0.057612	0.00333	38.00	38.00	38.00	0.00000	0.000	1	0.00	0.00	23.16	-11.52	-22.98	11.58	0	0	0	0
33	34	0.035280	0.083927	0.00256	84.30	84.30	84.30	0.00000	0.000	1	0.00	0.00	-18.78	2.78	18.91	-2.73	0	0	0	0
33	34	0.035280	0.083927	0.00256	84.30	84.30	84.30	0.00000	0.000	1	0.00	0.00	-18.78	2.78	18.91	-2.73	0	0	0	0
35	37	0.001520	0.008374	0.00809	297.60	297.60	297.60	0.00000	0.000	1	0.00	0.00	25.22	-4.95	-25.21	4.20	0	0	0	0
];

%% bus names
mpc.bus_name = {
'ALOHA138';
'ALOHA69';
'FLOWER69';
'WAVE69';
'HONOLULU138';
'HONOLULU69';
'SURF69';
'KANEOHE69';
'TURTLE138';
'TURTLE69';
'MAHALO69';
'LYCHEE69';
'COCONUT69';
'KAILUA138';
'KAILUA69';
'PALM69';
'WAIMANALO69';
'VOLCANO69';
'PEARL CITY69';
'MILILANI69';
'AIEA69';
'WAIPAHU138';
'WAIPAHU69';
'KAPOLEI69';
'EWA BEACH138';
'EWA BEACH69';
'KAHUKU69';
'HALEIWA69';
'LAIE69';
'WAHIAWA69';
'WAIALUA69';
'HAUULA69';
'WAIANAE69';
'SCHOFIELD69';
'KALAELOA138';
'COGEN69';
'KAHE138';
};

%% Generator Unit Types
mpc.gentype = {
'UN';
'UN';
'UN';
'UN';
'UN';
'UN';
'UN';
'UN';
'UN';
'UN';
'UN';
'UN';
'UN';
'UN';
'UN';
'UN';
'UN';
'UN';
'UN';
'UN';
'UN';
'UN';
'UN';
'UN';
'UN';
'UN';
'UN';
'UN';
'UN';
'UN';
'UN';
'UN';
'UN';
'UN';
'UN';
'UN';
'UN';
'UN';
'UN';
'UN';
'UN';
'UN';
'UN';
'UN';
'UN';
};

%% Generator Fuel Types
mpc.genfuel = {
'wood';
'wood';
'wood';
'wood';
'dfo';
'solar';
'dfo';
'dfo';
'dfo';
'dfo';
'dfo';
'dfo';
'dfo';
'solar';
'solar';
'solar';
'wind';
'wind';
'solar';
'wind';
'solar';
'wood';
'wood';
'wood';
'wood';
'wood';
'wood';
'wood';
'wood';
'coal';
'dfo';
'dfo';
'dfo';
'dfo';
'dfo';
'dfo';
'dfo';
'dfo';
'dfo';
'dfo';
'dfo';
'dfo';
'dfo';
'dfo';
'dfo';
};

%% gmd_bus data
%column_names% parent_index status g_gnd sub name
mpc.gmd_bus = {
-1	1	5.0000000000		-1	'dc sub ALOHA'
-1	1	5.0000000000		-1	'dc sub FLOWER'
-1	1	5.0000000000		-1	'dc sub WAVE'
-1	1	5.0000000000		-1	'dc sub HONOLULU'
-1	1	5.0000000000		-1	'dc sub SURF'
-1	1	5.0000000000		-1	'dc sub KANEOHE'
-1	1	5.0000000000		-1	'dc sub TURTLE'
-1	1	5.0000000000		-1	'dc sub MAHALO'
-1	1	5.0000000000		-1	'dc sub LYCHEE'
-1	1	5.0000000000		-1	'dc sub COCONUT'
-1	1	5.0000000000		-1	'dc sub KAILUA'
-1	1	5.0000000000		-1	'dc sub PALM'
-1	1	5.0000000000		-1	'dc sub WAIMANALO'
-1	1	5.0000000000		-1	'dc sub VOLCANO'
-1	1	5.0000000000		-1	'dc sub PEARL CITY'
-1	1	5.0000000000		-1	'dc sub MILILANI'
-1	1	5.0000000000		-1	'dc sub AIEA'
-1	1	5.0000000000		-1	'dc sub WAIPAHU'
-1	1	5.0000000000		-1	'dc sub KAPOLEI'
-1	1	5.0000000000		-1	'dc sub EWA BEACH'
-1	1	5.0000000000		-1	'dc sub KAHUKU'
-1	1	5.0000000000		-1	'dc sub HALEIWA'
-1	1	5.0000000000		-1	'dc sub LAIE'
-1	1	5.0000000000		-1	'dc sub WAHIAWA'
-1	1	5.0000000000		-1	'dc sub WAIALUA'
-1	1	5.0000000000		-1	'dc sub HAUULA'
-1	1	5.0000000000		-1	'dc sub WAIANAE'
-1	1	5.0000000000		-1	'dc sub SCHOFIELD'
-1	1	5.0000000000		-1	'dc sub KALAELOA'
-1	1	5.0000000000		-1	'dc sub COGEN'
-1	1	5.0000000000		-1	'dc sub KAHE'
1	1	0.0000000000		1	'dc bus ALOHA138'
2	1	0.0000000000		1	'dc bus ALOHA69'
3	1	0.0000000000		2	'dc bus FLOWER69'
4	1	0.0000000000		3	'dc bus WAVE69'
5	1	0.0000000000		4	'dc bus HONOLULU138'
6	1	0.0000000000		4	'dc bus HONOLULU69'
7	1	0.0000000000		5	'dc bus SURF69'
8	1	0.0000000000		6	'dc bus KANEOHE69'
9	1	0.0000000000		7	'dc bus TURTLE138'
10	1	0.0000000000		7	'dc bus TURTLE69'
11	1	0.0000000000		8	'dc bus MAHALO69'
12	1	0.0000000000		9	'dc bus LYCHEE69'
13	1	0.0000000000		10	'dc bus COCONUT69'
14	1	0.0000000000		11	'dc bus KAILUA138'
15	1	0.0000000000		11	'dc bus KAILUA69'
16	1	0.0000000000		12	'dc bus PALM69'
17	1	0.0000000000		13	'dc bus WAIMANALO69'
18	1	0.0000000000		14	'dc bus VOLCANO69'
19	1	0.0000000000		15	'dc bus PEARL CITY69'
20	1	0.0000000000		16	'dc bus MILILANI69'
21	1	0.0000000000		17	'dc bus AIEA69'
22	1	0.0000000000		18	'dc bus WAIPAHU138'
23	1	0.0000000000		18	'dc bus WAIPAHU69'
24	1	0.0000000000		19	'dc bus KAPOLEI69'
25	1	0.0000000000		20	'dc bus EWA BEACH138'
26	1	0.0000000000		20	'dc bus EWA BEACH69'
27	1	0.0000000000		21	'dc bus KAHUKU69'
28	1	0.0000000000		22	'dc bus HALEIWA69'
29	1	0.0000000000		23	'dc bus LAIE69'
30	1	0.0000000000		24	'dc bus WAHIAWA69'
31	1	0.0000000000		25	'dc bus WAIALUA69'
32	1	0.0000000000		26	'dc bus HAUULA69'
33	1	0.0000000000		27	'dc bus WAIANAE69'
34	1	0.0000000000		28	'dc bus SCHOFIELD69'
35	1	0.0000000000		29	'dc bus KALAELOA138'
36	1	0.0000000000		30	'dc bus COGEN69'
37	1	0.0000000000		31	'dc bus KAHE138'
};

%% gmd_branch data
%column_names% f_bus t_bus parent_type parent_index br_status br_r br_v len_km name
mpc.gmd_branch = {
32	1	'branch'	1	1	0.1000000000		0.0000000000		0.0000000000		'dc 1_hi'	% transformer 1-2
33	1	'branch'	1	1	0.0333333333		0.0000000000		0.0000000000		'dc 1_lo'	% 1-2
32	1	'branch'	2	1	0.1000000000		0.0000000000		0.0000000000		'dc 2_hi'	% transformer 1-2-2
33	1	'branch'	2	1	0.0333333333		0.0000000000		0.0000000000		'dc 2_lo'	% 1-2-2
32	1	'branch'	3	1	0.1000000000		0.0000000000		0.0000000000		'dc 3_hi'	% transformer 1-2-3
33	1	'branch'	3	1	0.0333333333		0.0000000000		0.0000000000		'dc 3_lo'	% 1-2-3
32	36	'branch'	4	1	0.2158320100		9.8383178700		10.3052176600		'dc 4'		% line 1-5
32	36	'branch'	5	1	0.2158320100		9.8383178700		10.3052176600		'dc 5'		% line 1-5-2
32	53	'branch'	6	1	0.2374152167		-4.5577230500		9.3006831500		'dc 6'		% line 1-22
32	56	'branch'	7	1	0.1834571933		-8.5466594700		8.5468464800		'dc 7'		% line 1-25
32	56	'branch'	8	1	0.1834571933		-8.5466594700		8.5468464800		'dc 8'		% line 1-25-2
32	66	'branch'	9	1	0.6855840267		-17.2879543300		17.8691774000		'dc 9'		% line 1-35
32	66	'branch'	10	1	0.6855840267		-17.2879543300		17.8691774000		'dc 10'		% line 1-35-2
33	35	'branch'	11	1	0.6817751667		9.4537754100		11.0176638000		'dc 11'		% line 2-4
33	37	'branch'	12	1	0.4267442833		9.8383178700		10.3052176600		'dc 12'		% line 2-6
33	37	'branch'	13	1	0.4267442833		9.8383178700		10.3052176600		'dc 13'		% line 2-6-2
33	38	'branch'	14	1	0.4370598200		11.7257261300		13.0987067900		'dc 14'		% line 2-7
33	52	'branch'	15	1	0.5786202233		5.6974525500		8.9046582600		'dc 15'		% line 2-21
33	54	'branch'	16	1	0.5176794333		-4.5577230500		9.3006831500		'dc 16'		% line 2-23
33	54	'branch'	17	1	0.5176794333		-4.5577230500		9.3006831500		'dc 17'		% line 2-23-2
33	54	'branch'	18	1	0.5176794333		-4.5577230500		9.3006831500		'dc 18'		% line 2-23-3
33	57	'branch'	19	1	0.4838762867		-8.5466594700		8.5468464800		'dc 19'		% line 2-26
33	57	'branch'	20	1	0.4838762867		-8.5466594700		8.5468464800		'dc 20'		% line 2-26-2
34	37	'branch'	21	1	0.2345585900		3.2388365300		4.7498415900		'dc 21'		% line 3-6
34	37	'branch'	22	1	0.2345585900		3.2388365300		4.7498415900		'dc 22'		% line 3-6-2
34	47	'branch'	23	1	0.3781821133		13.0718803400		13.6942965100		'dc 23'		% line 3-16
34	50	'branch'	24	1	0.2193234067		-6.2837095300		9.9302826900		'dc 24'		% line 3-19
34	50	'branch'	25	1	0.2193234067		-6.2837095300		9.9302826900		'dc 25'		% line 3-19-2
34	50	'branch'	26	1	0.2193234067		-6.2837095300		9.9302826900		'dc 26'		% line 3-19-3
34	52	'branch'	27	1	0.3845301033		-0.8999740500		6.4984437700		'dc 27'		% line 3-21
35	44	'branch'	28	1	0.1926618000		6.2715969100		6.2778546200		'dc 28'		% line 4-13
36	4	'branch'	29	1	0.1000000000		0.0000000000		0.0000000000		'dc 29_hi'	% transformer 5-6
37	4	'branch'	29	1	0.0333333333		0.0000000000		0.0000000000		'dc 29_lo'	% 5-6
36	40	'branch'	30	1	0.1453691967		2.3460271400		5.3161724100		'dc 30'		% line 5-9
36	45	'branch'	31	1	0.3643752033		9.0098505000		12.5216409200		'dc 31'		% line 5-14
38	37	'branch'	32	1	0.0634800033		-1.8867509400		3.3526387500		'dc 32'		% line 7-6
38	37	'branch'	33	1	0.0634800033		-1.8867509400		3.3526387500		'dc 33'		% line 7-6-2
38	37	'branch'	34	1	0.0634800033		-1.8867509400		3.3526387500		'dc 34'		% line 7-6-3
37	42	'branch'	35	1	0.3142259967		2.4263939900		4.9465851000		'dc 35'		% line 6-11
37	43	'branch'	36	1	0.2164668000		3.5580642200		3.5810919900		'dc 36'		% line 6-12
37	43	'branch'	37	1	0.2164668000		3.5580642200		3.5810919900		'dc 37'		% line 6-12-2
38	41	'branch'	38	1	0.0634800033		0.4591998200		2.0512327100		'dc 38'		% line 7-10
38	44	'branch'	39	1	0.1493367100		3.9993207500		4.0005785400		'dc 39'		% line 7-13
38	44	'branch'	40	1	0.1493367100		3.9993207500		4.0005785400		'dc 40'		% line 7-13-2
38	44	'branch'	41	1	0.1493367100		3.9993207500		4.0005785400		'dc 41'		% line 7-13-3
39	46	'branch'	42	1	0.4981592967		6.8465809800		9.2853482000		'dc 42'		% line 8-15
39	50	'branch'	43	1	0.5870313400		-11.6770448700		12.2811332500		'dc 43'		% line 8-19
39	50	'branch'	44	1	0.5870313400		-11.6770448700		12.2811332500		'dc 44'		% line 8-19-2
40	7	'branch'	45	1	0.1000000000		0.0000000000		0.0000000000		'dc 45_hi'	% transformer 9-10
41	7	'branch'	45	1	0.0333333333		0.0000000000		0.0000000000		'dc 45_lo'	% 9-10
40	45	'branch'	46	1	0.5922683800		6.6657633800		15.0256350100		'dc 46'		% line 9-14
42	44	'branch'	47	1	0.2926428133		3.4583561400		7.9715207100		'dc 47'		% line 11-13
42	46	'branch'	48	1	0.3694536000		6.5829129200		7.9096923600		'dc 48'		% line 11-15
43	46	'branch'	49	1	0.2397957000		5.4526214600		9.9226044800		'dc 49'		% line 12-15
43	48	'branch'	50	1	0.3615185933		10.3570079800		10.4858929400		'dc 50'		% line 12-17
44	47	'branch'	51	1	0.2077383000		3.9490435100		4.5521689100		'dc 51'		% line 13-16
45	11	'branch'	52	1	0.1000000000		0.0000000000		0.0000000000		'dc 52_hi'	% transformer 14-15
46	11	'branch'	52	1	0.0333333333		0.0000000000		0.0000000000		'dc 52_lo'	% 14-15
45	11	'branch'	53	1	0.1000000000		0.0000000000		0.0000000000		'dc 53_hi'	% transformer 14-15-2
46	11	'branch'	53	1	0.0333333333		0.0000000000		0.0000000000		'dc 53_lo'	% 14-15-2
47	49	'branch'	54	1	0.2464610967		6.3834018700		6.6410539700		'dc 54'		% line 16-18
48	49	'branch'	55	1	0.1561608033		2.3007891200		5.0395197500		'dc 55'		% line 17-18
50	54	'branch'	56	1	0.1996446067		-4.8699083300		4.8699195400		'dc 56'		% line 19-23
50	54	'branch'	57	1	0.1996446067		-4.8699083300		4.8699195400		'dc 57'		% line 19-23-2
50	54	'branch'	58	1	0.1996446067		-4.8699083300		4.8699195400		'dc 58'		% line 19-23-3
50	54	'branch'	59	1	0.1996446067		-4.8699083300		4.8699195400		'dc 59'		% line 19-23-4
51	54	'branch'	60	1	0.6770142467		-5.1431012200		8.8513838900		'dc 60'		% line 20-23
51	61	'branch'	61	1	0.4411859867		-4.6789569900		10.8947219600		'dc 61'		% line 20-30
51	63	'branch'	62	1	0.2370977900		2.9864542500		8.8477920500		'dc 62'		% line 20-32
53	18	'branch'	63	1	0.1000000000		0.0000000000		0.0000000000		'dc 63_hi'	% transformer 22-23
54	18	'branch'	63	1	0.0333333333		0.0000000000		0.0000000000		'dc 63_lo'	% 22-23
53	18	'branch'	64	1	0.1000000000		0.0000000000		0.0000000000		'dc 64_hi'	% transformer 22-23-2
54	18	'branch'	64	1	0.0333333333		0.0000000000		0.0000000000		'dc 64_lo'	% 22-23-2
53	18	'branch'	65	1	0.1000000000		0.0000000000		0.0000000000		'dc 65_hi'	% transformer 22-23-3
54	18	'branch'	65	1	0.0333333333		0.0000000000		0.0000000000		'dc 65_lo'	% 22-23-3
53	56	'branch'	66	1	0.1891704033		-3.9868211700		8.9839959000		'dc 66'		% line 22-25
53	68	'branch'	67	1	0.4329336000		-15.0381336200		16.4885824500		'dc 67'		% line 22-37
54	65	'branch'	68	1	0.4783218133		-7.6978101700		10.2430690200		'dc 68'		% line 23-34
54	65	'branch'	69	1	0.4783218133		-7.6978101700		10.2430690200		'dc 69'		% line 23-34-2
55	57	'branch'	70	1	0.2610615100		6.2155437500		6.5391864100		'dc 70'		% line 24-26
55	57	'branch'	71	1	0.2610615100		6.2155437500		6.5391864100		'dc 71'		% line 24-26-2
55	64	'branch'	72	1	0.2682029900		-8.7830553100		14.6165886600		'dc 72'		% line 24-33
55	67	'branch'	73	1	0.3004190800		-3.2866492300		6.5756845100		'dc 73'		% line 24-36
56	20	'branch'	74	1	0.1000000000		0.0000000000		0.0000000000		'dc 74_hi'	% transformer 25-26
57	20	'branch'	74	1	0.0333333333		0.0000000000		0.0000000000		'dc 74_lo'	% 25-26
56	20	'branch'	75	1	0.1000000000		0.0000000000		0.0000000000		'dc 75_hi'	% transformer 25-26-2
57	20	'branch'	75	1	0.0333333333		0.0000000000		0.0000000000		'dc 75_lo'	% 25-26-2
56	66	'branch'	76	1	0.2621723800		-8.7400817900		9.8659458100		'dc 76'		% line 25-35
56	66	'branch'	77	1	0.2621723800		-8.7400817900		9.8659458100		'dc 77'		% line 25-35-2
56	68	'branch'	78	1	0.3104171900		-11.0541982700		11.1290620400		'dc 78'		% line 25-37
56	68	'branch'	79	1	0.3104171900		-11.0541982700		11.1290620400		'dc 79'		% line 25-37-2
58	60	'branch'	80	1	0.3789755900		3.6066100600		5.7300343900		'dc 80'		% line 27-29
59	61	'branch'	81	1	0.1777439967		7.1064806000		9.0068782800		'dc 81'		% line 28-30
59	61	'branch'	82	1	0.1777439967		7.1064806000		9.0068782800		'dc 82'		% line 28-30-2
59	62	'branch'	83	1	0.8104809200		-14.2015342700		15.5736575500		'dc 83'		% line 28-31
60	61	'branch'	84	1	0.2347173100		-3.6689963300		6.3754618300		'dc 84'		% line 29-30
60	63	'branch'	85	1	0.3673905233		3.9928908300		7.8203633200		'dc 85'		% line 29-32
62	64	'branch'	86	1	0.4278552100		1.8890035200		10.6885567600		'dc 86'		% line 31-33
64	65	'branch'	87	1	0.5598935933		11.2779331200		11.3308003000		'dc 87'		% line 33-34
64	65	'branch'	88	1	0.5598935933		11.2779331200		11.3308003000		'dc 88'		% line 33-34-2
66	68	'branch'	89	1	0.0964896067		-2.3160104800		6.3062540500		'dc 89'		% line 35-37
